9

  C    0.042169999   0.201258719   4.116874046
  O    0.069082266   1.386332200   3.825032860
  N    1.174750271  -0.550618928   4.219693991
  H    2.045690524  -0.128038409   3.951031736
  H    1.135812307  -1.542505592   4.351116915
  C   -1.248050981  -0.537678769   4.381327875
  H   -1.100800977  -1.498400129   4.868452241
  H   -1.754278506  -0.695987699   3.430514528
  H   -1.885994929   0.089557662   4.996599728
