15

  C    1.056711715  -0.863504087   4.398372896
  H    1.510564224  -0.955560326   3.410390342
  H    1.601214215  -1.527484354   5.067570568
  C    1.111025186   0.602447915   4.831308878
  H    2.069315177   1.075346849   4.620584589
  H    0.922909900   0.684085457   5.904532010
  C   -0.056326397   1.215262392   4.060537677
  H    0.217977879   1.304043995   3.007066055
  H   -0.340740821   2.206403517   4.412171691
  C   -1.173270889   0.177690483   4.231565991
  H   -1.898810168   0.201304337   3.420194079
  H   -1.717356519   0.382387639   5.153814607
  C   -0.450234544  -1.188857348   4.335222878
  H   -0.692899090  -1.833013473   3.491863204
  H   -0.765340771  -1.716259762   5.234309298
