11

  N    2.343365019  -1.257111955   0.030259302
  C    2.681801335  -0.444767890  -0.981453174
  H    2.139134116  -0.589305871  -1.906834533
  C    3.653130597   0.547365905  -0.881086170
  H    3.877983037   1.171706192  -1.733936863
  C    4.313970664   0.716907343   0.331178268
  H    5.071824609   1.479144679   0.447562397
  C    3.973837755  -0.118055182   1.390301221
  H    4.456426161  -0.027592943   2.353001875
  C    2.990056190  -1.082844190   1.191117840
  H    2.703971860  -1.746591798   1.997728497
